*Heading
** Job name: JOB71 Model name: MODEL_71
** Generated by: Abaqus/CAE 2021
*Preprint, echo=NO, model=NO, history=NO, contact=NO
**
** PARTS
**
*Part, name=ROD
*End Part
**  
**
** ASSEMBLY
**
*Assembly, name=Assembly
**  
*Instance, name=ROD, part=ROD
*Node
      1,          2.5,   14.1583128
      2,           0.,   14.1583128
      3,           0.,         12.5
      4,           2.,         12.5
      5,           0.,           0.
      6,           2., 0.0250000004
      7,   1.97500002,           0.
      8,          2.5,          21.
      9,           0.,          21.
     10,   2.38636374,   14.1583128
     11,   2.27272725,   14.1583128
     12,     2.159091,   14.1583128
     13,    2.0454545,   14.1583128
     14,   1.93181813,   14.1583128
     15,   1.81818187,   14.1583128
     16,    1.7045455,   14.1583128
     17,   1.59090912,   14.1583128
     18,   1.47727275,   14.1583128
     19,   1.36363637,   14.1583128
     20,         1.25,   14.1583128
** ... 4879 like lines cut
*Element, type=CAX4R
  1,   1,  10, 511,  85
  2,  10,  11, 512, 511
  3,  11,  12, 513, 512
  4,  12,  13, 514, 513
  5,  13,  14, 515, 514
  6,  14,  15, 516, 515
  7,  15,  16, 517, 516
  8,  16,  17, 518, 517
  9,  17,  18, 519, 518
 10,  18,  19, 520, 519
 11,  19,  20, 521, 520
 12,  20,  21, 522, 521
 13,  21,  22, 523, 522
 14,  22,  23, 524, 523
 15,  23,  24, 525, 524
 16,  24,  25, 526, 525
 17,  25,  26, 527, 526
 18,  26,  27, 528, 527
 19,  27,  28, 529, 528
 20,  28,  29, 530, 529
** ... 4644 like lines cut
*Node
   4900,           0.,          23.,           0.
*Nset, nset=ROD-RefPt_, internal
4900, 
*Nset, nset=LOADING_POINT
 4900,
*Nset, nset=BOTTOM_EDGE
   5,   7, 211, 212, 213, 214, 215, 216, 217, 218, 219, 220, 221, 222, 223, 224
 225, 226, 227, 228, 229, 230, 231
*Elset, elset=BOTTOM_EDGE, generate
 3147,  3168,     1
*Nset, nset=COUPLE_EDGE
   8,   9, 423, 424, 425, 426, 427, 428, 429, 430, 431, 432, 433, 434, 435, 436
 437, 438, 439, 440, 441, 442, 443
*Elset, elset=COUPLE_EDGE, generate
 4643,  4664,     1
*Nset, nset=BOTTOM_EDGE_VERTICE
 7,
*Nset, nset=ALL_FACES, generate
    1,  4899,     1
*Elset, elset=ALL_FACES, generate
    1,  4664,     1
** Section: P91
*Solid Section, elset=ALL_FACES, material=P91
,
*End Instance
**  
*Surface, type=NODE, name=ROD_COUPLE_EDGE_CNS_, internal
ROD.COUPLE_EDGE, 1.
** Constraint: KIN_COUPLE
*Coupling, constraint name=KIN_COUPLE, ref node=ROD.LOADING_POINT, surface=ROD_COUPLE_EDGE_CNS_
*Kinematic
*End Assembly
*Amplitude, name=AMPLITUDE, time=TOTAL TIME
             0.,              0.,              1.,              1.
** 
** MATERIALS
** 
*Material, name=P91
*Density
 7.8e-06,
*Elastic
207011., 0.3
*Plastic
 403.713,          0.
 407.457, 8.19176e-05
 410.274, 0.000168309
 413.091,   0.0002547
 415.908, 0.000341091
 418.725, 0.000427482
  421.34,  0.00051485
   423.3, 0.000605383
  425.26, 0.000695916
  427.22, 0.000786449
 429.179, 0.000876983
 431.139, 0.000967516
 432.825,  0.00105937
 434.273,  0.00115238
  435.72,  0.00124539
 437.167,   0.0013384
 438.614,   0.0014314
 440.062,  0.00152441
 441.436,  0.00161777
 442.376,  0.00171324
** ... 1963 like lines cut
*Porous Metal Plasticity, relative density=0.998595
 1.08534, 1.02021, 2.54354
*Void Nucleation
 0.296762,    0.1346, 0.0414449
** 
** BOUNDARY CONDITIONS
** 
** Name: CONSTRAIN_LOADING Type: Displacement/Rotation
*Boundary
ROD.LOADING_POINT, 1, 1
ROD.LOADING_POINT, 2, 2
ROD.LOADING_POINT, 6, 6
** Name: X_SYM Type: Displacement/Rotation
*Boundary
ROD.BOTTOM_EDGE, 2, 2
** ----------------------------------------------------------------
** 
** STEP: DISPLACEMENT
** 
*Step, name=DISPLACEMENT, nlgeom=YES
*Dynamic, Explicit
, 1.
*Bulk Viscosity
0.06, 1.2
** Mass Scaling: Semi-Automatic
**               Whole Model
*Fixed Mass Scaling, dt=1e-05, type=below min, factor=10.
** 
** BOUNDARY CONDITIONS
** 
** Name: DISPLACEMENT Type: Displacement/Rotation
*Boundary, amplitude=AMPLITUDE
ROD.LOADING_POINT, 1, 1
ROD.LOADING_POINT, 2, 2, 2.61
ROD.LOADING_POINT, 6, 6
** 
** OUTPUT REQUESTS
** 
*Restart, write, number interval=1, time marks=NO
** 
** FIELD OUTPUT: F-Output-1
** 
*Output, field
*Node Output
COORD, RF, U
*Element Output, directions=YES
LE, PEEQ, S
** 
** HISTORY OUTPUT: ENERGY
** 
*Output, history, frequency=5
*Energy Output, elset=ROD.ALL_FACES
ALLIE, ALLKE
** 
** HISTORY OUTPUT: LE22
** 
*Element Output, elset=ROD.BOTTOM_EDGE
LE22, 
** 
** HISTORY OUTPUT: PEEQ
** 
*Element Output, elset=ROD.BOTTOM_EDGE
PEEQ, 
** 
** HISTORY OUTPUT: RF
** 
*Node Output, nset=ROD.BOTTOM_EDGE
RF2, 
** 
** HISTORY OUTPUT: S22
** 
*Element Output, elset=ROD.BOTTOM_EDGE
S22, 
** 
** HISTORY OUTPUT: UX
** 
*Node Output, nset=ROD.BOTTOM_EDGE_VERTICE
U1, 
** 
** HISTORY OUTPUT: UY
** 
*Node Output, nset=ROD.LOADING_POINT
U2, 
*End Step
